23
 energy: -34.767344821430 gnorm: 0.001163247230 xtb: 6.5.1 (579679a)
C            3.31314603479959        0.70525113798779       -0.37343911118880
C            1.92498948133255        0.26450360283723       -0.46618800661086
O            1.19156523794332        0.17900564298512       -1.38069794467427
C            1.39155534687060       -0.16567841061009        1.10296639572635
C            0.33084538207723        0.81485050055787        1.19479330779427
C           -0.83887482995701        0.50858054462884        0.54409140285337
O           -1.87904148244055        1.32166228935279        0.36406724270701
C           -2.87986620545861        0.64054199830378       -0.41081329132672
C           -2.33169551978852       -0.76313702243253       -0.73535892198219
C           -1.02760324522830       -0.77435509894156       -0.03034139197034
C           -0.13228952654829       -1.81844779581689        0.17845656987586
C            1.05970692510855       -1.53719685756095        0.79816819600866
H            3.63862126413471        1.00792408032552       -1.36525642991013
H            3.41580917160628        1.53607314529146        0.32251663887737
H            3.93221929083617       -0.11061907702058       -0.00548174931027
H            2.22863849693799       -0.01553515622632        1.77530455372971
H            0.50964768403575        1.78546075616358        1.62647803922961
H           -3.06693416172623        1.24046730783424       -1.30434146899844
H           -3.79082709719635        0.60510202570530        0.18989417956902
H           -2.18677261643574       -0.91014613245860       -1.80811004984840
H           -2.98780839325644       -1.56094553242284       -0.38472836215574
H           -0.37469472661374       -2.81634425008144       -0.15101122729123
H            1.80266348896581       -2.30331769840593        0.95573142890016